if [ -f "../output_file/all/allShortPath_1.txt" ];then
        rm ../output_file/all/allShortPath_1.txt
fi
~/huarzail/CMP_POPNET/CMP/PMS_dvfs/cmp1/sim-outorder \
        -redir:sim ../dvfs_log/allShortPath_1.txt \
        -redir:dump ../dvfs_log/allShortPath_1.out \
       	-read_file ../../../pt_net_1.txt \
       	-write_file ../../../pt_net_in.txt \
       	-write_file_backup ../../../pt_net_in_backup.txt \
        -sorted:router ../input_file/noc/allShortPath_1.sorted\
        -sorted:processor ../input_file/processor/allShortPath_1.sorted \
        -sorted:l2 ../input_file/memory/allShortPath_1.sorted\
        -output:cycle ../output_file/all/allShortPath_1.txt\
        -config config_mesh_ooo_xy_dvfs \
		-max:barrier 0 -max:inst 10000000 hello.BNC
