sim-outorder: SimpleScalar/Alpha Tool Set version 3.0 of November, 2000.
Copyright (c) 1994-2000 by Todd M. Austin.  All Rights Reserved.
This version of SimpleScalar is licensed for academic non-commercial use only.

sim: command line: /home/w/huarzail/CMP_POPNET_ACK/CMP/PMS_trace/cmp1/sim-outorder -redir:sim ./result/test_bfs.txt -redir:dump ./result/test_bfs.txt.out -read_file ../../../pt_net_1.txt -write_file ../../../pt_net_in.txt -write_file_backup ../../../pt_net_in_backup.txt -flow_trace ../trace/flow_bfs_1.txt -router_trace ../trace/router_bfs_1.txt -cpu:trace ../trace/cpu_bfs_1.txt -L2:trace ../trace/L2_bfs_1.txt -config ./config_mesh_ooo_xy_org -max:barrier 0 -max:inst 100000000 hello.BNC 
Run on localhost.localdomain
initializing context 0
thread 0 hello
sim: command line: /home/w/huarzail/CMP_POPNET_ACK/CMP/PMS_trace/cmp1/sim-outorder -redir:sim ./result/test_bfs.txt -redir:dump ./result/test_bfs.txt.out -read_file ../../../pt_net_1.txt -write_file ../../../pt_net_in.txt -write_file_backup ../../../pt_net_in_backup.txt -flow_trace ../trace/flow_bfs_1.txt -router_trace ../trace/router_bfs_1.txt -cpu:trace ../trace/cpu_bfs_1.txt -L2:trace ../trace/L2_bfs_1.txt -config ./config_mesh_ooo_xy_org -max:barrier 0 -max:inst 100000000 hello.BNC 
Run on localhost.localdomain

sim: main.c compiled on Aug 25 2015 at 16:08:09 with gcc version 4.1.2 20080704 (Red Hat 4.1.2-52)
sim: simulation started @ Wed Aug 26 12:10:40 2015, options follow:

sim-outorder: This simulator implements a very detailed out-of-order issue
superscalar processor with a two-level memory system and speculative
execution support.  This simulator is a performance simulator, tracking the
latency of all pipeline operations.

-config                     # load configuration from a file
-dumpconfig                 # dump configuration to a file
-h                    false # print help message    
-v                    false # verbose operation     
-d                    false # enable debug message  
-i                    false # start in Dlite debugger
-seed                       1 # random number generator seed (0 for timer seed)
-q                    false # initialize and terminate immediately
-redir:sim     ./result/test_bfs.txt # redirect simulator output to file (non-interactive only)
-redir:dump    ./result/test_bfs.txt.out # redirect simulated program output to file
-nice                       0 # simulator scheduling priority
-max:inst           100000000 # maximum number of inst's to execute/thread
-max:barrier                0 # maximum number of barriers to execute
-network:meshsize            8 # mesh size of the network
-freq:proc                  0 # the init frequency of processor
-freq:router                0 # the init frequency of router
-freq:l2                    0 # the init frequency of l2
-random:proc            false # random processor frequency
-random:router          false # random router frequency
-random:l2              false # random router frequency
-row                        1 # the region row        
-col                        1 # the region col        
-sharer:read_en             1 # sharer read enable    
-inform_back:total_en            1 # inform back en        
-tlb:class_coarse            0 # tlb class coarse      
-multi_blk:set_shift            0 # multi blk set shift   
-multi_blk:adap_en            0 # multi blk adaptive    
-multi_blk_adap:pain_en            0 # multi blk adap pain en
-multi_blk_adap:inform_en            0 # multi blk adap inform en
-multi_blk_adap:repl_ad_en            0 # multi blk adap repl ad en
-multi_blk_adap:recall_ad_en            0 # multi blk adap recall ad en
-pvc:vector_num             8 # pvc vector num        
-pvc:sharer_threshold            8 # pvc sharer threshold  
-pvc:nv_broadcast            0 # pvc non-vector broadcast
-prefetch:L2_En             0 # enable L2 prefetch    
-prefetch:L1_En             0 # enable L1 prefetch    
-STREAM:min                 0 # STREAM & min          
-STREAM:L2_distance           16 # STREAM_L2_distance    
-STREAM:min_distance           16 # STREAM_min_distance   
-ptrace              <null> # generate pipetrace, i.e., <fname|stdout|stderr> <range>
-fetch:ifqsize              4 # instruction fetch queue size (in insts)
-fetch:mplat                5 # extra branch mis-prediction latency
-fetch:speed                1 # speed of front-end of machine relative to execution core
-bpred                   comb # branch predictor type {nottaken|taken|perfect|bimod|2lev|comb|2bcgskew}
-bpred:btb_use_masterid         true # use masterid in place of threadid when interacting with BTB, giving you per-process instead of per-thread entries
-bpred:bimod     4096 # bimodal predictor config (<table size>)
-bpred:2lev      1 8192 13 1 # 2-level predictor config (<l1size> <l2size> <hist_size> <xor>)
-bpred:comb      8192 # combining predictor config (<meta_table_size>)
-disp1                      0 # 2bcgskew table displacement for lev 1
-disp2                      0 # 2bcgskew table displacement for lev 2
-bpred:2bcgskew  32768 32768 0 22 4 4 # 2Bc-gskew predictor config (<bim_size> <size> <bim_hist_size> <g0_hist_size> <g1_hist_size> <meta_hist_size>)
-bpred:ras                 32 # return address stack size (0 for no return stack)
-bpred:btb       4096 4 # BTB config (<num_sets> <associativity>)
-bpred:spec_update       <null> # speculative predictors update in {ID|WB} (default non-spec)
-decode:width               4 # instruction decode B/W (insts/cycle)
-thrdf:limit                8 # Number of thread fetch (thrd/cycle<=8)
-instthrdf:width            4 # instruction fetch B/w per thread (insts/cycle<=decode_width)
-ipregf:size               64 # integer physical register file size (per cluster)
-fpregf:size               64 # floating point physical register file size (per cluster)
-iqueue:size               16 # integer queue size (insts) (per cluster)
-fqueue:size               16 # floating point queue size (insts) (per cluster)
-issue:width                4 # instruction issue B/W (insts/cluster/cycle)
-issue:inorder          false # run pipeline with in-order issue
-issue:wrongpath         true # issue instructions down wrong execution paths
-commit:width               4 # instruction commit B/W (insts/thread/cycle)
-ruu:size                  64 # register update unit (RUU) size
-lsq:size                  32 # load/store queue (LSQ) size (per cluster)
-lq:size                   16 # load queue (LQ) size  
-sq:size                   16 # store queue (SQ) size 
-checker:vdd           0.6000 # checker vdd           
-checker:freq          0.5000 # checker running at what fraction of full freq
-cache:dl1       dl1:128:64:2:l # l1 data cache config, i.e., {<config>|none} (each cluster)
-cache:dl1lat               2 # l1 data cache hit latency (in cycles)
-cache:ml2       ml2:4096:64:8:l # l2 meta cache config, i.e., {<config>|none}
-cache:dl2       dl2:4096:64:8:l # l2 data cache config, i.e., {<config>|none}
-cache:ml2lat               0 # l2 meta cache hit latency (in cycles)
-cache:dl2lat              15 # l2 data cache hit latency (in cycles)
-cache:il1       il1:256:64:2:l # l1 inst cache config, i.e., {<config>|dl1|dl2|none}
-cache:il1lat               1 # l1 instruction cache hit latency (in cycles)
-cache:il2                dl2 # l2 instruction cache config, i.e., {<config>|dl2|none}
-cache:il2lat              15 # l2 instruction cache hit latency (in cycles)
-cache:flush            false # flush caches on system calls
-cache:icompress        false # convert 64-bit inst addresses to 32-bit inst equivalents
-mem:lat         200 12 # memory access latency (<first_chunk> <inter_chunk>)
-mem:width                 16 # memory access bus width (in bytes)
-mem:speed            32.0000 # memory access bus speed (in GHz)
-mem:ports                  8 # memory access port number
-tlb:itlb        itlb:1:4096:64:l # instruction TLB config, i.e., {<config>|none}
-tlb:dtlb        dtlb:1:4096:64:l # data TLB config, i.e., {<config>|none}
-tlb:lat                  250 # inst/data TLB miss latency (in cycles)
-network:rec_algr            0 # receiver algorism for network
-network:net_algr            0 # confliction algorism for network
-res:ialu                   4 # total number of integer ALU's available (per cluster)
-res:imult                  1 # total number of integer multiplier/dividers available (per cluster)
-maxThrds                  64 # Maximum Number of Threads Allowed
-Coherent_Cache          true # Coherent Cache        
-MSI_prot                true # MSI Protocol          
-SPEC                   false # SPEC Benchmarks       
-res:membank                1 # number of data cache banks available (per Cluster to CPU)
-res:memport                2 # total number of memory system ports available (per bank)
-res:fpalu                  4 # total number of floating point ALU's available (per cluster)
-res:fpmult                 1 # total number of floating point multiplier/dividers available (per cluster)
-pcstat              <null> # profile stat(s) against text addr's (mult uses ok)
-bugcompat              false # operate in backward-compatible bugs mode (for testing only)
-hotspot:sampling_intvl        10000 # how many cycles between calls to update_hotspot_stats
-ray:disabled               1 # ray active            
-cpu:trace       ../trace/cpu_bfs_1.txt # file for cpu pipeline trace record
-L2:trace        ../trace/L2_bfs_1.txt # file for L2 trace record
-n_way                      1 # number of clusters assigned to a thread
-n_way_cache                1 # number of cluster caches assigned to a thread
-n_way_adjacent         false # Assigns starting threads at theadid * n_way instead of CLUSTERS/numthreads * threadid (well the min of the two choices when true)
-uni-lat-comm           false # All communications take 1 cycle if from 2 different nodes
-two-lat-comm           false # All communications take 2 cycle if from 2 different nodes (1 cycle for adjacent)
-link:type           <null> # The link definitions, 'name:type:width:hoptime:physics' with type like 'ER' and physics of 'electrical' or 'optical'
-link:custom         <null> # Custom link destination definition, 'name:to0,to1,...' with toi = -1 for no link, specifyig where the link goes from each core.
-fe_link_time              -1 # Fixed time for a cluster node to communicate with the FE. If negative, it will use a noncongested electrical network instead.
-hotspot:flp   /home/vax2/u27/xue/CMP_baseline/run/floorplan.flp # floorplan file (.flp))
-hotspot:init        <null> # hotspot temperature initialization file
-hotspot:steady  hotspot.out # hotspot temperature steady-state (output) file
-hotspot:t_interface      30.0000 # hotspot thermal interface material (thermal paste) thickness, in microns
-hotspot:dump_freq           30 # one in this many calls to update_hotspot_stats will print current temps
-hotspot:base_proc_freq 2500000000.0000 # base processor frequency in Hz
-hotspot:active        false # Turns HotSpot on      
-network                 MESH # network type {FSOI|MESH|COMB|HYBRID}
-network:intercfg         FSOI # inter chip network config {FSOI|MESH}
-network:intracfg         MESH # intra chip network config {FSOI|MESH}
-network:chipnum            4 # number of chips in whole system
-network:input_buffer_size           48 # input buffer size (flit unit)
-network:output_buffer_size           16 # output buffer size (flit unit)
-network:output_ports            1 # output buffer ports   
-network:packet_queue_size          256 # packet queue size (packet unit, used for output buffer)
-network:meta_receivers            2 # total number of receivers for meta packets
-network:data_receivers            2 # total number of receivers for data packets
-network:transmitters            1 # total numbers of transmitters
-network:confirmation_trans            1 # number of confirmation transmitters
-network:confirmation_receiver            1 # number of confirmation receiver
-network:laser_cycle           12 # laser cycle (1 CPU cycle)
-network:meta_transmitter_size            6 # how many bits can be transfered in one laser cycle
-network:data_transmitter_size            6 # how many bits can be transfered in one laser cycle
-network:flit_size           72 # flit size (bits)      
-network:data_packet_size            5 # Data packet size      
-network:meta_packet_size            1 # meta packet size      
-network:confirmation_bit            1 # confirmation bit      
-network:laser_warmup_time            1 # laser warm up time    
-network:laser_setup_time            1 # laser set up time     
-network:laser_switchoff_timeout            1 #                       
-network:data_chan_timeslot            1 #                       
-network:meta_chan_timeslot            1 #                       
-network:exp_backoff            1 #                       
-network:first_slot_num       3.0000 #                       
-network:retry_algr            0 #                       
-network:TBEB_algr            0 #                       
-network:confirmation_time            1 #                       
-mesh_network:buffer_size           12 #                       
-mesh_network:outbuffer_size            1 #                       
-mesh_network:mesh_flit_size           64 #                       
-mesh_network:vc_num            1 #                       
-mesh_network:routing_algr            0 #                       
-mesh_network:phit_size           64 #                       
-flow_trace      ../trace/flow_bfs_1.txt #                       
-router_trace    ../trace/router_bfs_1.txt #                       
-read_file       ../../../pt_net_1.txt #                       
-write_file      ../../../pt_net_in.txt #                       
-write_file_backup ../../../pt_net_in_backup.txt #                       

####### Network configuration #######

Optical interconnect

Popnet interconnect

Confirmation based optimazation for Invalidation

Write back split in network level

Inorder probability-based scheduling (IRD)

Ordering by addr

###### network configuration end ######

  Pipetrace range arguments are formatted as follows:

    {{@|#}<start>}:{{@|#|+}<end>}

  Both ends of the range are optional, if neither are specified, the entire
  execution is traced.  Ranges that start with a `@' designate an address
  range to be traced, those that start with an `#' designate a cycle count
  range.  All other range values represent an instruction count range.  The
  second argument, if specified with a `+', indicates a value relative
  to the first argument, e.g., 1000:+100 == 1000:1100.  Program symbols may
  be used in all contexts.

    Examples:   -ptrace FOO.trc #0:#1000
                -ptrace BAR.trc @2000:
                -ptrace BLAH.trc :1500
                -ptrace UXXE.trc :
                -ptrace FOOBAR.trc @main:+278

  Branch predictor configuration examples for 2-level predictor:
    Configurations:   N, M, W, X
      N   # entries in first level (# of shift register(s))
      W   width of shift register(s)
      M   # entries in 2nd level (# of counters, or other FSM)
      X   (yes-1/no-0) xor history and address for 2nd level index
    Sample predictors:
      GAg     : 1, W, 2^W, 0
      GAp     : 1, W, M (M > 2^W), 0
      PAg     : N, W, 2^W, 0
      PAp     : N, W, M (M == 2^(N+W)), 0
      gshare  : 1, W, 2^W, 1
  Predictor `comb' combines a bimodal and a 2-level predictor.

  The cache config parameter <config> has the following format:

    <name>:<nsets>:<bsize>:<assoc>:<repl>

    <name>   - name of the cache being defined
    <nsets>  - number of sets in the cache
    <bsize>  - block size of the cache
    <assoc>  - associativity of the cache
    <repl>   - block replacement strategy, 'l'-LRU, 'f'-FIFO, 'r'-random

    Examples:   -cache:dl1 dl1:4096:32:1:l
                -dtlb dtlb:128:4096:32:r

  Cache levels can be unified by pointing a level of the instruction cache
  hierarchy at the data cache hiearchy using the "dl1" and "dl2" cache
  configuration arguments.  Most sensible combinations are supported, e.g.,

    A unified l2 cache (il2 is pointed at dl2):
      -cache:il1 il1:128:64:1:l -cache:il2 dl2
      -cache:dl1 dl1:256:32:1:l -cache:dl2 ul2:1024:64:2:l

    Or, a fully unified cache hierarchy (il1 pointed at dl1):
      -cache:il1 dl1
      -cache:dl1 ul1:256:32:1:l -cache:dl2 ul2:1024:64:2:l



Issueq size   - int 16 fp 16
rename Pregfile size - int 64 fp 64
CLUSTERS 64
ROWCOUNT 4
CENTRAL_CACHE 0
CENTRALCACHELAT 0
CACHELOC 0
PRED_BR_CHANGES 0
PRED_JR_CHANGES 0
DYNAMIC_CHANGE 0
METRIC_CHANGE 0
LINEAR_PHASE 0
SMALLEST_CONFIG 64
GRID 0
CACHEPORTS 64
RES_CACHEPORTS 64
READY_COMM 1
HOLY_REGS 0
NUM_H_REGS 3
COPY_THRESH 50
FIRST_FIT 0
FIRST_FIT_ENFORCE 0
FIRST_VAL 10000
STEER_ENFORCE 0
MOD_N 0
MOD_N_N 8
FIRST_MOD 0
GROUPSIZE 4
MOD_N_T 2
ANYWILLDO 1
NEIGHBOR_SEEK 32
PICKMIDDLE 0
MIDTHRESH 16
HOPTIME 1
COMM_LATENCY 32
CACHE_REFILL_LAT 0
MPRED_COMM_LAT 0
LD_PROXIMITY 0
LDPROX_FACTOR 256
STEER_2NONREADY 0
STEER_CRITICAL 0
ILOAD_MIN 1
IFACTOR 4
RLOAD_MIN 1
RFACTOR 1
DEP_FACTOR 64
LD_FACTOR 0
IQBUF 0
REGFREE 0
FREE_CURR_REGS 0
FREE_INTERVAL 1
DISPDELAY 0
RING_BW 1
TIMEWINDOW 5000
ST_ADDR_COMM 1
ST_RING_BW 1
RING_IC 1
IGNORE_COMM_LATENCY 1
TOL_COUNT 0
STOREDELAY 1
BANKPRED 1
BANKMISPREDLAT 1
BANKP_SPEC 0
LEV1SIZE 1024
LEV2SIZE 4096
XORSIZE 12
WORD_INTERLEAVED 0
WORDSIZE 8
SORT 0
NUMPHASES 64
MIN_INSN_INT 10000
STOP_EXPL_THRESH -5
ILPTAGCHECK 1
DISTILP 120
DISTILPTHRESH 30
SAMPLETHRESH 10
BR_INT 8
ITABLESIZE 16384
OWINDOWSIZE 360
ILPCLEARINT 10000000
STATPRINT 0
CYCNOISE 10
NUMCYCTHRESH 5
STATINT 10000
FREE_REG_THRESH 4000
TABLE2SIZE 4096
TABLESIZE 4096
Thread 0, sim: ** fast forwarding 0 insts **
Context 0 Allocating thread ID at 1: 0
Context 0 Allocating thread ID at 2: 0
Context 0 Allocating thread ID at 3: 0
Initialization over: timing simulation can start now
sim: ** starting performance simulation **
 THRD_WAY_CACHE
 N_WAY_CACHE: default only,  1
PARTITIONED_LSQ
DE_CENTRALIZED_LSQ
 DE_CENTRALIZED_POWER_BUG
SPLIT_LSQ
 PWR_DE_CENTRALIZED_LSQ
ALLOW_ANY_CLUSTER
N_WAY_STEER ,N_WAY:default 1 
SELECTIVE_DISPATCH
INST_TRANS_RATE
 TRACE_REG
IGNORE_ALL_COMM_LATENCY
IGNORE_MEM_COMM_LATENCY
FETCH_ONE_BLOCK 
MSHR , MSHRSIZE 10000000
NO_EXTRA_REG
PORT_PER_BANK
LINE_INTERLEAVED
PWR_CLUSTER,ISSUE_PER_CLUSTER 
PWR__SMT_RR
REMOVE_ILP = 1
HOPTIME = 1
CENTRALIZED_CACHE_BANK
IGNORE_MEM_COMM_LATENCY
DO_DYNAMIC_ADAPTATION = 0
N_WAY = 1
n_way_cache = 1
Total Pregfile size - int 64 fp 64
Computation over: timing simulation can stop now
[INFO 0]: sim_num_insn=91402
sim: ** simulation statistics **
pure_num_insn                 91402 			# total number of instructions committed not including synchronization instructions
total_num_insn               110710 			# total number of instructions committed including synchronization instructions
sim_num_insn                 110295 			# total number of instructions committed not including consistency replay instructions
TotalBarriers                    25 			# total number of barriers
TotalLocks                        0 			# total number of locks
sim_num_refs                  36185 			# total number of loads and stores committed
sim_num_loads                 24252 			# total number of loads committed
sim_num_stores           11933.0000 # total number of stores committed
sim_num_branches              18275 			# total number of branches committed
sim_elapsed_time                117 # total simulation time in seconds
sim_inst_rate              942.6923 # simulation speed (in insts/sec)
sim_total_insn               127212 			# total number of instructions executed
sim_total_refs                38584 			# total number of loads and stores executed
sim_total_loads               26126 			# total number of loads executed
sim_total_stores         12458.0000 # total number of stores executed
sim_total_branches            19363 			# total number of branches executed
sim_cycle                    252916 			# total simulation time in cycles
realSimCycle                 252916 			# 
sim_IPC                      0.4361 # instructions per cycle
realSimIPC                   0.3614 # 
mainEffectiveIPC       <error: variable is undefined: main_thread_stall_count> # 
num_of_invalidations              0 			# Number_Of_Validations
sim_CPI                      2.2931 # cycles per instruction
sim_exec_BW                  0.5030 # total instructions (mis-spec + committed) per cycle
ldIssueCount                  26180 			# total ld issue attmept
pullbackCycleCnt_0              278 			# 
max_lsq_num                       0 			# 
total_data_counts              2542 			# total num of data packets in all
total_meta_counts              3854 			# total num of meta packets in all
total_data_sync_counts            0 			# total num of data sync packets in all
total_meta_sync_counts            0 			# total num of meta sync packets in all
total_optical_data_counts            0 			# total num of data packets in optical network
total_optical_meta_counts            0 			# total num of meta packets in optical network
total_mesh_data_counts            0 			# total num of data packets in mesh network
total_mesh_meta_counts            0 			# total num of meta packets in mesh network
total_sync_writeup                0 			# total num of event inital created
total_sync_writemiss              0 			# total num of event inital created
total_sync_readmiss               0 			# total num of event inital created
total_normal_event_count         1015 			# total num of event inital created
total_sync_event_count            0 			# total num of event inital created
total_event_count              1015 			# total num of event inital created
total_write_indicate              0 			# 
total_exclusive_modified            0 			# 
total_exclusive_conf              0 			# 
total_exclusive_cross             0 			# 
total_prefetch_wb_early            0 			# total num of event created due to L1 prefetch
total_prefetch_l1_count            0 			# total num of event created due to L1 prefetch
total_prefetch_l2_count            0 			# total num of event created due to L2 prefetch
total_prefetch_l1_first_count            0 			# total num of event created due to L1 prefetch
total_prefetch_l1_sec_count            0 			# total num of event created due to L1 prefetch
total_prefetch_l1_usefull            0 			# total num of usefull L1 prefetch
total_prefetch_l1_writeafter            0 			# total num of usefull L1 prefetch
replace_history                                                     8 			# depth of replace history
coherence_history                                                   8 			# depth of coherence history
prefetch_replace_history                                            1 			# depth of prefetch replace history
L1_miss_table_size                                                 32 			# L1_miss_table_size
L1_stream_entries                                                  16 			# L1_stream_entries
L2_miss_table_size                                                 16 			# L2_miss_table_size
L2_stream_entries                                                   8 			# L2_stream_entries
Total_MetaPackets_Num                                               0 			# total number of MetaPackets
Total_DataPackets_Num                                               0 			# total number of DataPackets
total_L2_MEM_L2Prefetch_Req                                         0 			# total_L2_MEM_L2Prefetch_Req
total_L2_MEM_Data_Miss_Req                                        141 			# total_L2_MEM_Data_Miss_Req
total_L2_MEM_Inst_Miss_Req                                        331 			# total_L2_MEM_Inst_Miss_Req
total_MEM_L2_Data_Payload                                         316 			# total_MEM_L2_Data_Payload
total_MEM_L2_Inst_Payload                                         628 			# total_MEM_L2_Inst_Payload
total_L2_MEM_Data_Payload                                           0 			# total_L2_MEM_Data_Payload
total_L1_L2_Inst_Miss_Req                                         576 			# total_L1_L2_Inst_Miss_Req
total_L2_L1_Inst_Payload                                          576 			# total_L2_L1_Inst_Payload
total_L1_L2_Data_Read_Miss_Req                                    608 			# total_L1_L2_Data_Read_Miss_Req
total_L2_L1_Data_Read_Miss_Payload                                605 			# total_L2_L1_Data_Read_Miss_Payload
total_L2_L1_Data_Read_Invalid                                     266 			# total_L2_L1_Data_Read_Invalid
total_L1_L2_Data_Read_Invalid_Ack                                 217 			# total_L1_L2_Data_Read_Invalid_Ack
total_L1_L2_Data_Read_Invalid_Payload                              49 			# total_L1_L2_Data_Read_Invalid_Payload
total_L1_L2_Data_Write_Miss_Req                                   213 			# total_L1_L2_Data_Write_Miss_Req
total_L2_L1_Data_Write_Miss_Payload                               235 			# total_L2_L1_Data_Write_Miss_Payload
total_L2_L1_Data_L2replaced_Invalid                                 0 			# total_L2_L1_Data_L2replaced_Invalid
total_L2_L1_Data_Write_Invalid                                    574 			# total_L2_L1_Data_Write_Invalid
total_L1_L2_Data_L2replaced_Invalid_Ack                             0 			# total_L1_L2_Data_L2replaced_Invalid_Ack
total_L1_L2_Data_Write_Invalid_Ack                                125 			# total_L1_L2_Data_Write_Invalid_Ack
total_L1_L2_Data_L2replaced_Invalid_Payload                         0 			# total_L1_L2_Data_L2replaced_Invalid_Payload
total_L1_L2_Data_Write_Invalid_Payload                            449 			# total_L1_L2_Data_Write_Invalid_Payload
total_L1_L2_Data_Write_Update                                     194 			# total_L1_L2_Data_Write_Update
total_L2_L1_Data_Write_Update_Ack                                 171 			# total_L2_L1_Data_Write_Update_Ack
total_L1_L2_Data_Writeback_Payload                                 13 			# total_L1_L2_Data_Writeback_Payload
total_L2_L1_Data_Verify_Ack                                         0 			# total_L2_L1_Data_Verify_Ack
total_L2_L1_Data_Verify_Playload                                    0 			# total_L2_L1_Data_Verify_Playload
total_L2_L1_Data_Prefetch_Playload_PPP                              0 			# total_L2_L1_Data_Prefetch_Playload_PPP
total_L1_L2_Read_Verify_Req                                         0 			# total_L1_L2_Read_Verify_Req
total_L1_L2_Write_Verify_Req                                        0 			# total_L1_L2_Write_Verify_Req
total_L1_L2_shr_tlb_miss_Req                                       27 			# total_L1_L2_shr_tlb_miss_Req
total_L1_L2_shr_tlb_write_back_Req                                  0 			# total_L1_L2_shr_tlb_write_back_Req
total_L1_L2_shr_tlb_sr_recovery_Req                                 0 			# total_L1_L2_shr_tlb_sr_recovery_Req
total_L1_L2_shr_tlb_update_pr_ack_Req                               0 			# total_L1_L2_shr_tlb_update_pr_ack_Req
total_L1_L2_shr_tlb_update_pw_ack_Req                               0 			# total_L1_L2_shr_tlb_update_pw_ack_Req
total_L1_L2_shr_tlb_recovery_ack_Req                                0 			# total_L1_L2_shr_tlb_recovery_ack_Req
total_L1_L2_dir_tlb_refill_Req                                     27 			# total_L1_L2_dir_tlb_refill_Req
total_L1_L2_dir_tlb_update_Req                                      0 			# total_L1_L2_dir_tlb_update_Req
total_L1_L2_dir_tlb_recovery_Req                                    0 			# total_L1_L2_dir_tlb_recovery_Req
total_L2_L1_dir_shr_read                                            0 			# total_L2_L1_dir_shr_read
total_L1_L2_ack_shr_read                                            0 			# total_L1_L2_ack_shr_read
total_L1_L2_inform_back                                            55 			# total_L1_L2_inform_back
total_TSHR_Full                                                     0 			# total_TSHR_Full
level1_data_cache_access                                        44536 			# total num of level1 data cache_access
level1_data_cache_access_read                                   21229 			# total num of level1 data cache_access_read
level1_data_cache_access_write                                  23307 			# total num of level1 data cache_access_write
level1_data_cache_access_read_hit                               20621 			# total num of level1 data cache_access_read_hit
level1_data_cache_access_read_miss                                608 			# total num of level1 data cache_access_read_miss
level1_data_cache_access_read_compulsory_miss                       0 			# total num of level1 data cache_access_read_compulsory_miss
level1_data_cache_access_read_capacity_miss                         0 			# total num of level1 data cache_access_read_capacity_miss
level1_data_cache_access_read_coherence_miss                        0 			# total num of level1 data cache_access_read_coherence_miss
level1_data_cache_access_read_prefetch_capacity_miss                0 			# total num of level1 data cache_access_read_prefetch_capacity_miss
level1_data_cache_access_write_miss                               213 			# total num of level1 data cache_access_write_miss
level1_data_cache_access_write_compulsory_miss                      0 			# total num of level1 data cache_access_write_compulsory_miss
level1_data_cache_access_write_capacity_miss                        0 			# total num of level1 data cache_access_write_capacity_miss
level1_data_cache_access_write_coherence_miss                       0 			# total num of level1 data cache_access_write_coherence_miss
level1_data_cache_access_write_prefetch_capacity_miss               0 			# total num of level1 data cache_access_write_prefetch_capacity_miss
level1_data_cache_access_write_local                            22900 			# total num of level1 data cache_access_write_local
level1_data_cache_access_write_local_FPP                            0 			# total num of level1 data cache_access_write_local_FPP
level1_data_cache_access_write_update                             194 			# total num of level1 data cache_access_write_update
read_L1_miss_L2_hit_num                                             0 			# read L1 miss L2 hit num 
read_L1_miss_L2_hit_total_time                                      0 			# read L1 miss L2 hit total time
read_L2_miss_num                                                  604 			# read L2 miss num
read_L2_miss_total_time                                        106266 			# read L2 miss total time 
write_L1_miss_L2_hit_num                                          235 			# write L1 miss L2 hit num
write_L1_miss_L2_hit_total_time                                 43451 			# write L1 miss L2 hit total time
write_L2_miss_num                                                   0 			# write L2 miss num
write_L2_miss_total_time                                            0 			# write L2 miss total time
total_page_num                                                     13 			# total_page_num
pr_page_num                                                        11 			# pr_page_num
pw_page_num                                                         2 			# pw_page_num
sr_page_num                                                         0 			# sr_page_num
sw_page_num                                                         0 			# sw_page_num
total_line_num                                                    141 			# total_line_num
pr_line_num                                                        32 			# pr_line_num
pw_line_num                                                        62 			# pw_line_num
sr_line_num                                                        37 			# sr_line_num
sw_line_num                                                        10 			# sw_line_num
SWP_total_line                                                      0 			# SWP_total_line
SWP_sw_line                                                         0 			# SWP_sw_line
SWP_sr_line                                                         0 			# SWP_sr_line
SWP_pw_line                                                         0 			# SWP_pw_line
SWP_pr_line                                                         0 			# SWP_pr_line
recall_num                                                          0 			# recall_num
recall_inv_num                                                      0 			# recall_inv_num
read_inv_S_num                                                    266 			# read_inv_S_num
read_inv_QH_num                                                     0 			# read_inv_QH_num
read_inv_e_QM_num                                                   0 			# read_inv_e_QM_num
read_inv_d_QM_num                                                   0 			# read_inv_d_QM_num
write_inv_d_S_num                                                 125 			# write_inv_d_S_num
write_inv_e_S_num                                                   1 			# write_inv_e_S_num
write_inv_s_S_num                                                 425 			# write_inv_s_S_num
write_inv_i_S_num                                                  23 			# write_inv_i_S_num
write_inv_d_QM_num                                                  0 			# write_inv_d_QM_num
write_inv_e_QM_num                                                  0 			# write_inv_e_QM_num
write_inv_s_QM_num                                                  0 			# write_inv_s_QM_num
write_inv_i_QM_num                                                  0 			# write_inv_i_QM_num
write_inv_d_QH_num                                                  0 			# write_inv_d_QH_num
write_inv_e_QH_num                                                  0 			# write_inv_e_QH_num
write_inv_s_QH_num                                                  0 			# write_inv_s_QH_num
write_inv_i_QH_num                                                  0 			# write_inv_i_QH_num
recall_inv_d_S_num                                                  0 			# recall_inv_d_S_num
recall_inv_e_S_num                                                  0 			# recall_inv_e_S_num
recall_inv_s_S_num                                                  0 			# recall_inv_s_S_num
recall_inv_i_S_num                                                  0 			# recall_inv_i_S_num
recall_inv_d_Q_num                                                  0 			# recall_inv_d_Q_num
recall_inv_e_Q_num                                                  0 			# recall_inv_e_Q_num
recall_inv_s_Q_num                                                  0 			# recall_inv_s_Q_num
recall_inv_i_Q_num                                                  0 			# recall_inv_i_Q_num
SW_read_request_num                                               608 			# SW_read_request_num
SW_write_request_num                                              407 			# SW_write_request_num
read_S_hit_num                                                    606 			# read_S_hit_num
read_Q_hit_num                                                      0 			# read_Q_hit_num
read_Q_init_num                                                    90 			# read_Q_init_num
read_Q_init_SR_num                                                  0 			# read_Q_init_SR_num
read_Q_init_QR_num                                                  0 			# read_Q_init_QR_num
write_S_hit_num                                                   406 			# write_S_hit_num
write_Q_hit_num                                                     0 			# write_Q_hit_num
write_S_init_ed_num                                                 0 			# write_S_init_ed_num
write_S_init_ed_SR_num                                              0 			# write_S_init_ed_SR_num
write_S_init_ed_QR_num                                              0 			# write_S_init_ed_QR_num
write_S_init_s_num                                                  0 			# write_S_init_s_num
write_S_init_s_SR_num                                               0 			# write_S_init_s_SR_num
write_S_init_s_QR_num                                               0 			# write_S_init_s_QR_num
write_Q_init_num                                                   51 			# write_Q_init_num
write_Q_init_SR_num                                                 0 			# write_Q_init_SR_num
write_Q_init_QR_num                                                 0 			# write_Q_init_QR_num
shr_data_req_initial_num                                            0 			# shr_data_req_initial_num
shr_data_req_total_num                                              0 			# shr_data_req_total_num
shr_data_req_fail_num                                               0 			# shr_data_req_fail_num
inform_back_num                                                    54 			# inform_back_num
write_back_num                                                     13 			# write_back_num
inform_back_Q                                                       0 			# inform_back_Q
inform_back_S                                                      54 			# inform_back_S
write_back_Q                                                        0 			# write_back_Q
write_back_S                                                       13 			# write_back_S
mb_pain_delay_num                                                   0 			# mb_pain_delay_num
mb_pain_portuse_num                                                 0 			# mb_pain_portuse_num
read_Q_init_QR_s_num                                                0 			# read_Q_init_QR_s_num
read_Q_init_QR_ed_num                                               0 			# read_Q_init_QR_ed_num
write_S_init_ed_QR_s_num                                            0 			# write_S_init_ed_QR_s_num
write_S_init_ed_QR_ed_num                                           0 			# write_S_init_ed_QR_ed_num
write_S_init_s_QR_s_num                                             0 			# write_S_init_s_QR_s_num
write_S_init_s_QR_ed_num                                            0 			# write_S_init_s_QR_ed_num
write_Q_init_QR_s_num                                               0 			# write_Q_init_QR_s_num
write_Q_init_QR_ed_num                                              0 			# write_Q_init_QR_ed_num
recall_inv_d_Q_s_num                                                0 			# recall_inv_d_Q_s_num
recall_inv_d_Q_ed_num                                               0 			# recall_inv_d_Q_ed_num
recall_inv_e_Q_s_num                                                0 			# recall_inv_e_Q_s_num
recall_inv_e_Q_ed_num                                               0 			# recall_inv_e_Q_ed_num
recall_inv_s_Q_s_num                                                0 			# recall_inv_s_Q_s_num
recall_inv_s_Q_ed_num                                               0 			# recall_inv_s_Q_ed_num
recall_inv_i_Q_s_num                                                0 			# recall_inv_i_Q_s_num
recall_inv_i_Q_ed_num                                               0 			# recall_inv_i_Q_ed_num
recall_inv_d_Q_s_ad_num                                             0 			# recall_inv_d_Q_s_ad_num
recall_inv_e_Q_s_ad_num                                             0 			# recall_inv_e_Q_s_ad_num
recall_inv_s_Q_ed_ad_num                                            0 			# recall_inv_s_Q_ed_ad_num
line_access_num                                                 32728 			# line_access_num
SWP_line_access_num                                             32728 			# SWP_line_access_num
SWP_PR_line_access_num                                            610 			# SWP_PR_line_access_num
SWP_PW_line_access_num                                          20781 			# SWP_PW_line_access_num
SWP_SR_line_access_num                                           4787 			# SWP_SR_line_access_num
SWP_SW_line_access_num                                           6409 			# SWP_SW_line_access_num
PVC_vector_distr_record_num                                       605 			# PVC_vector_distr_record_num
PVC_vector_inc_distr_record_num                                   265 			# PVC_vector_inc_distr_record_num
PVC_vector_distr_0                                               130 			# 
PVC_vector_distr_1                                               475 			# 
PVC_vector_distr_2                                                 0 			# 
PVC_vector_distr_3                                                 0 			# 
PVC_vector_distr_4                                                 0 			# 
PVC_vector_distr_5                                                 0 			# 
PVC_vector_distr_6                                                 0 			# 
PVC_vector_distr_7                                                 0 			# 
PVC_vector_distr_8                                                 0 			# 
PVC_vector_inc_distr_0                                           265 			# 
PVC_vector_inc_distr_1                                             0 			# 
PVC_vector_inc_distr_2                                             0 			# 
PVC_vector_inc_distr_3                                             0 			# 
PVC_vector_inc_distr_4                                             0 			# 
PVC_vector_inc_distr_5                                             0 			# 
PVC_vector_inc_distr_6                                             0 			# 
PVC_vector_inc_distr_7                                             0 			# 
PVC_vector_inc_distr_8                                             0 			# 
PVC_exchange_num                                                    0 			# PVC_exchange_num
PVC_flip_num                                                        0 			# PVC_flip_num
PVC_dowm_no_inv_num                                                 0 			# PVC_dowm_no_inv_num
PVC_dowm_inv_num                                                    0 			# PVC_dowm_inv_num
PVC_dowm_inv_shr_num                                                0 			# PVC_dowm_inv_shr_num
PVC_up_no_add_num                                                   0 			# PVC_up_no_add_num
PVC_up_add_num                                                      0 			# PVC_up_add_num
PVC_up_add_shr_num                                                  0 			# PVC_up_add_shr_num
PVC_exch_vec_shr_distr_0                                           0 			# 
PVC_exch_vec_shr_distr_1                                           0 			# 
PVC_exch_vec_shr_distr_2                                           0 			# 
PVC_exch_vec_shr_distr_3                                           0 			# 
PVC_exch_vec_shr_distr_4                                           0 			# 
PVC_exch_vec_shr_distr_5                                           0 			# 
PVC_exch_vec_shr_distr_6                                           0 			# 
PVC_exch_vec_shr_distr_7                                           0 			# 
PVC_exch_vec_shr_distr_8                                           0 			# 
PVC_exch_vec_shr_distr_9                                           0 			# 
PVC_exch_vec_shr_distr_10                                           0 			# 
PVC_exch_vec_shr_distr_11                                           0 			# 
PVC_exch_vec_shr_distr_12                                           0 			# 
PVC_exch_vec_shr_distr_13                                           0 			# 
PVC_exch_vec_shr_distr_14                                           0 			# 
PVC_exch_vec_shr_distr_15                                           0 			# 
PVC_exch_vec_shr_distr_16                                           0 			# 
PVC_exch_vec_shr_distr_17                                           0 			# 
PVC_exch_vec_shr_distr_18                                           0 			# 
PVC_exch_vec_shr_distr_19                                           0 			# 
PVC_exch_vec_shr_distr_20                                           0 			# 
PVC_exch_vec_shr_distr_21                                           0 			# 
PVC_exch_vec_shr_distr_22                                           0 			# 
PVC_exch_vec_shr_distr_23                                           0 			# 
PVC_exch_vec_shr_distr_24                                           0 			# 
PVC_exch_vec_shr_distr_25                                           0 			# 
PVC_exch_vec_shr_distr_26                                           0 			# 
PVC_exch_vec_shr_distr_27                                           0 			# 
PVC_exch_vec_shr_distr_28                                           0 			# 
PVC_exch_vec_shr_distr_29                                           0 			# 
PVC_exch_vec_shr_distr_30                                           0 			# 
PVC_exch_vec_shr_distr_31                                           0 			# 
PVC_exch_vec_shr_distr_32                                           0 			# 
PVC_exch_vec_shr_distr_33                                           0 			# 
PVC_exch_vec_shr_distr_34                                           0 			# 
PVC_exch_vec_shr_distr_35                                           0 			# 
PVC_exch_vec_shr_distr_36                                           0 			# 
PVC_exch_vec_shr_distr_37                                           0 			# 
PVC_exch_vec_shr_distr_38                                           0 			# 
PVC_exch_vec_shr_distr_39                                           0 			# 
PVC_exch_vec_shr_distr_40                                           0 			# 
PVC_exch_vec_shr_distr_41                                           0 			# 
PVC_exch_vec_shr_distr_42                                           0 			# 
PVC_exch_vec_shr_distr_43                                           0 			# 
PVC_exch_vec_shr_distr_44                                           0 			# 
PVC_exch_vec_shr_distr_45                                           0 			# 
PVC_exch_vec_shr_distr_46                                           0 			# 
PVC_exch_vec_shr_distr_47                                           0 			# 
PVC_exch_vec_shr_distr_48                                           0 			# 
PVC_exch_vec_shr_distr_49                                           0 			# 
PVC_exch_vec_shr_distr_50                                           0 			# 
PVC_exch_vec_shr_distr_51                                           0 			# 
PVC_exch_vec_shr_distr_52                                           0 			# 
PVC_exch_vec_shr_distr_53                                           0 			# 
PVC_exch_vec_shr_distr_54                                           0 			# 
PVC_exch_vec_shr_distr_55                                           0 			# 
PVC_exch_vec_shr_distr_56                                           0 			# 
PVC_exch_vec_shr_distr_57                                           0 			# 
PVC_exch_vec_shr_distr_58                                           0 			# 
PVC_exch_vec_shr_distr_59                                           0 			# 
PVC_exch_vec_shr_distr_60                                           0 			# 
PVC_exch_vec_shr_distr_61                                           0 			# 
PVC_exch_vec_shr_distr_62                                           0 			# 
PVC_exch_vec_shr_distr_63                                           0 			# 
PVC_exch_vec_shr_distr_64                                           0 			# 
PVC_dowm_inv_shr_distr_0                                           0 			# 
PVC_dowm_inv_shr_distr_1                                           0 			# 
PVC_dowm_inv_shr_distr_2                                           0 			# 
PVC_dowm_inv_shr_distr_3                                           0 			# 
PVC_dowm_inv_shr_distr_4                                           0 			# 
PVC_dowm_inv_shr_distr_5                                           0 			# 
PVC_dowm_inv_shr_distr_6                                           0 			# 
PVC_dowm_inv_shr_distr_7                                           0 			# 
PVC_dowm_inv_shr_distr_8                                           0 			# 
PVC_dowm_inv_shr_distr_9                                           0 			# 
PVC_dowm_inv_shr_distr_10                                           0 			# 
PVC_dowm_inv_shr_distr_11                                           0 			# 
PVC_dowm_inv_shr_distr_12                                           0 			# 
PVC_dowm_inv_shr_distr_13                                           0 			# 
PVC_dowm_inv_shr_distr_14                                           0 			# 
PVC_dowm_inv_shr_distr_15                                           0 			# 
PVC_dowm_inv_shr_distr_16                                           0 			# 
PVC_dowm_inv_shr_distr_17                                           0 			# 
PVC_dowm_inv_shr_distr_18                                           0 			# 
PVC_dowm_inv_shr_distr_19                                           0 			# 
PVC_dowm_inv_shr_distr_20                                           0 			# 
PVC_dowm_inv_shr_distr_21                                           0 			# 
PVC_dowm_inv_shr_distr_22                                           0 			# 
PVC_dowm_inv_shr_distr_23                                           0 			# 
PVC_dowm_inv_shr_distr_24                                           0 			# 
PVC_dowm_inv_shr_distr_25                                           0 			# 
PVC_dowm_inv_shr_distr_26                                           0 			# 
PVC_dowm_inv_shr_distr_27                                           0 			# 
PVC_dowm_inv_shr_distr_28                                           0 			# 
PVC_dowm_inv_shr_distr_29                                           0 			# 
PVC_dowm_inv_shr_distr_30                                           0 			# 
PVC_dowm_inv_shr_distr_31                                           0 			# 
PVC_dowm_inv_shr_distr_32                                           0 			# 
PVC_dowm_inv_shr_distr_33                                           0 			# 
PVC_dowm_inv_shr_distr_34                                           0 			# 
PVC_dowm_inv_shr_distr_35                                           0 			# 
PVC_dowm_inv_shr_distr_36                                           0 			# 
PVC_dowm_inv_shr_distr_37                                           0 			# 
PVC_dowm_inv_shr_distr_38                                           0 			# 
PVC_dowm_inv_shr_distr_39                                           0 			# 
PVC_dowm_inv_shr_distr_40                                           0 			# 
PVC_dowm_inv_shr_distr_41                                           0 			# 
PVC_dowm_inv_shr_distr_42                                           0 			# 
PVC_dowm_inv_shr_distr_43                                           0 			# 
PVC_dowm_inv_shr_distr_44                                           0 			# 
PVC_dowm_inv_shr_distr_45                                           0 			# 
PVC_dowm_inv_shr_distr_46                                           0 			# 
PVC_dowm_inv_shr_distr_47                                           0 			# 
PVC_dowm_inv_shr_distr_48                                           0 			# 
PVC_dowm_inv_shr_distr_49                                           0 			# 
PVC_dowm_inv_shr_distr_50                                           0 			# 
PVC_dowm_inv_shr_distr_51                                           0 			# 
PVC_dowm_inv_shr_distr_52                                           0 			# 
PVC_dowm_inv_shr_distr_53                                           0 			# 
PVC_dowm_inv_shr_distr_54                                           0 			# 
PVC_dowm_inv_shr_distr_55                                           0 			# 
PVC_dowm_inv_shr_distr_56                                           0 			# 
PVC_dowm_inv_shr_distr_57                                           0 			# 
PVC_dowm_inv_shr_distr_58                                           0 			# 
PVC_dowm_inv_shr_distr_59                                           0 			# 
PVC_dowm_inv_shr_distr_60                                           0 			# 
PVC_dowm_inv_shr_distr_61                                           0 			# 
PVC_dowm_inv_shr_distr_62                                           0 			# 
PVC_dowm_inv_shr_distr_63                                           0 			# 
PVC_dowm_inv_shr_distr_64                                           0 			# 
PVC_up_add_shr_distr_0                                             0 			# 
PVC_up_add_shr_distr_1                                             0 			# 
PVC_up_add_shr_distr_2                                             0 			# 
PVC_up_add_shr_distr_3                                             0 			# 
PVC_up_add_shr_distr_4                                             0 			# 
PVC_up_add_shr_distr_5                                             0 			# 
PVC_up_add_shr_distr_6                                             0 			# 
PVC_up_add_shr_distr_7                                             0 			# 
PVC_up_add_shr_distr_8                                             0 			# 
PVC_up_add_shr_distr_9                                             0 			# 
PVC_up_add_shr_distr_10                                             0 			# 
PVC_up_add_shr_distr_11                                             0 			# 
PVC_up_add_shr_distr_12                                             0 			# 
PVC_up_add_shr_distr_13                                             0 			# 
PVC_up_add_shr_distr_14                                             0 			# 
PVC_up_add_shr_distr_15                                             0 			# 
PVC_up_add_shr_distr_16                                             0 			# 
PVC_up_add_shr_distr_17                                             0 			# 
PVC_up_add_shr_distr_18                                             0 			# 
PVC_up_add_shr_distr_19                                             0 			# 
PVC_up_add_shr_distr_20                                             0 			# 
PVC_up_add_shr_distr_21                                             0 			# 
PVC_up_add_shr_distr_22                                             0 			# 
PVC_up_add_shr_distr_23                                             0 			# 
PVC_up_add_shr_distr_24                                             0 			# 
PVC_up_add_shr_distr_25                                             0 			# 
PVC_up_add_shr_distr_26                                             0 			# 
PVC_up_add_shr_distr_27                                             0 			# 
PVC_up_add_shr_distr_28                                             0 			# 
PVC_up_add_shr_distr_29                                             0 			# 
PVC_up_add_shr_distr_30                                             0 			# 
PVC_up_add_shr_distr_31                                             0 			# 
PVC_up_add_shr_distr_32                                             0 			# 
PVC_up_add_shr_distr_33                                             0 			# 
PVC_up_add_shr_distr_34                                             0 			# 
PVC_up_add_shr_distr_35                                             0 			# 
PVC_up_add_shr_distr_36                                             0 			# 
PVC_up_add_shr_distr_37                                             0 			# 
PVC_up_add_shr_distr_38                                             0 			# 
PVC_up_add_shr_distr_39                                             0 			# 
PVC_up_add_shr_distr_40                                             0 			# 
PVC_up_add_shr_distr_41                                             0 			# 
PVC_up_add_shr_distr_42                                             0 			# 
PVC_up_add_shr_distr_43                                             0 			# 
PVC_up_add_shr_distr_44                                             0 			# 
PVC_up_add_shr_distr_45                                             0 			# 
PVC_up_add_shr_distr_46                                             0 			# 
PVC_up_add_shr_distr_47                                             0 			# 
PVC_up_add_shr_distr_48                                             0 			# 
PVC_up_add_shr_distr_49                                             0 			# 
PVC_up_add_shr_distr_50                                             0 			# 
PVC_up_add_shr_distr_51                                             0 			# 
PVC_up_add_shr_distr_52                                             0 			# 
PVC_up_add_shr_distr_53                                             0 			# 
PVC_up_add_shr_distr_54                                             0 			# 
PVC_up_add_shr_distr_55                                             0 			# 
PVC_up_add_shr_distr_56                                             0 			# 
PVC_up_add_shr_distr_57                                             0 			# 
PVC_up_add_shr_distr_58                                             0 			# 
PVC_up_add_shr_distr_59                                             0 			# 
PVC_up_add_shr_distr_60                                             0 			# 
PVC_up_add_shr_distr_61                                             0 			# 
PVC_up_add_shr_distr_62                                             0 			# 
PVC_up_add_shr_distr_63                                             0 			# 
PVC_up_add_shr_distr_64                                             0 			# 
PVC_inform_all_shr_num                                              0 			# PVC_inform_all_shr_num
PVC_rfs_all_shr_num                                                 0 			# PVC_rfs_all_shr_num
PVC_read_all_shr_num                                                0 			# PVC_read_all_shr_num
PVC_write_all_shr_num                                               0 			# PVC_write_all_shr_num
PVC_recall_all_shr_num                                              0 			# PVC_recall_all_shr_num
pvc_nv_conflict_num                                                 0 			# pvc_nv_conflict_num
total_req_event_count           213 			# total num of request event inital created
StoreConditionFailNum             0 			# Total store conditional failed num
lock_network_access               0 			# 
totalUpgrades                   194 			# total number of upgrades seen
total_miss_event_count          608 			# total num of miss event intial created
totalNetUpgrades                166 			# total number of upgrades seen
totalUpgradesUsable               0 			# total number of upgrades not usable
totalUpgradesBeneficial            0 			# total number of upgrades not usable
totalUpgradesUse2                 0 			# total number of upgrades usable without confirmation
totalSyncdata                     0 			# total number of data packets due to sync
totalSyncmeta                     0 			# total number of meta packets due to sync
totalNetWrites                    0 			# total number of Writes seen
totalWritesUsable                 0 			# total number of Writes not usable
totalWritesBeneficial             0 			# total number of Writes not usable
totalWritesUse2                   0 			# total number of Writes usable without confirmation
totalNoExclusive                  0 			# total number of Writes unusable because of exclusive somewhere else
totalFrontWrite                   0 			# total number of Writes unusavle because of front write
totalL2WriteReqHits               0 			# total num of write events
totalL2WriteReqNoSharer            0 			# total num of write req with no sharers
totalL2WriteReqDirty              0 			# total  num of write req with just one sharer
delayL2WriteReqDirty              0 			# Extra delay to complete write req with just one sharer, in case the earlier write would had been write through
totalL2WriteReqDirtyWT            0 			# total times write req with just one sharer, in case the earlier write would had been write through
totalL2WriteReqShared             0 			# total num of write req with multiple sharers
delayL2WriteReqShared             0 			# Extra delay to complete write req with multiple sharers, in case earlier reads would had been read through
totalL2WriteReqSharedWT            0 			# total times write req with multiple sharers, in case earlier reads would had been read through
totalL2ReadReqHits                0 			# total num of Read events
totalL2ReadReqNoSharer            0 			# total num of Read req with no sharers
totalL2ReadReqDirty               0 			# total  num of Read req with just one sharer
delayL2ReadReqDirty               0 			# Extra delay to complete Read req with just one sharer, in case the earlier write would had been write through
totalL2ReadReqDirtyWT             0 			# total times Read req with just one sharer, in case the earlier write would had been write through
totalL2ReadReqShared              0 			# total num of read req with multiple sharers
totalL1LinePrefUse                0 			# total L1 line prefetches useful
totalL1LinePrefNoUse              0 			# total L1 line prefetches not useful
totalL1LineReadUse                0 			# total L1 line read misses useful
totalL1LineReadNoUse              0 			# total L1 line read misses not useful
totalL1LineWriteUse               0 			# total L1 line write misses useful
totalL1LineWriteNoUse             0 			# total L1 line write misses not useful
totalL1LineExlUsed               15 			# total L1 line in exclusive mode useful
totalL1LineExlInv                 0 			# total L1 line in exclusive mode invalidated without use
totalL1LineExlDrop                0 			# total L1 line in exclusive mode droped without use
totalL2ReqPrimMiss                0 			# Total number of directory requests involve in primary miss
totalL2ReqSecMiss                 0 			# Total number of directory requests involve in secondary miss
totalL2ReqHit                     0 			# Total number of directory requests involve in clean hit
totalL2ReqInTrans                 0 			# Total number of directory requests find line in transition
totalL2OwnReqInTrans              0 			# Total number of directory ownership requests find line in transition
totalL2ReqInInv                   0 			# Total number of directory requests have to invalidate
delayL2ReqPrimMiss                0 			# delay of Total number of directory requests involve in primary miss
delayL2ReqSecMiss                 0 			# delay of Total number of directory requests involve in secondary miss
delayL2ReqHit                     0 			# delay of Total number of directory requests involve in clean hit
delayL2ReqInTrans                 0 			# delay of Total number of directory requests find line in transition
delayL2OwnReqInTrans              0 			# delay of Total number of directory ownership requests find line in transition
delayL2ReqInInv                   0 			# delay of Total number of directory requests have to invalidate
totalWriteReq                   235 			# Total number of write request to L2
totalWriteReqInv                 51 			# Total number of write requests with invalidations to L2
totalWriteDelay               43451 			# Time spent in write requests to L2
totalWriteInvDelay         -4047015 			# Time spent in invalidation for write requests to L2
totalUpgradeReq                 171 			# Total number of write request to L2
totalUpgradeReqInv                0 			# Total number of write requests with invalidations to L2
totalUpgradeDelay             24592 			# Time spent in write requests to L2
totalUpgradeInvDelay              0 			# Time spent in invalidation for write requests to L2
totalUpgradeDependDelay         1739 			# Time spent in depend delay for update requests to L2
countNonAllocReadEarly            0 			# Number of times a read miss request from L1 has been serviced early without allocation
WM_Miss                           0 			# 
WM_Clean                          0 			# 
WM_S                              0 			# 
WM_EM                             0 			# 
WM_ShardUseConf                   0 			# 
Sync_L2_miss                      0 			# 
SyncInstCacheAccess               0 			# 
TestCacheAccess                   0 			# 
TestSecCacheAccess                0 			# 
SetCacheAccess                    0 			# 
SyncLoadReadMiss                  0 			# 
SyncLoadLReadMiss                 0 			# 
SyncLoadHit                       0 			# 
SyncLoadLHit                      0 			# 
SyncStoreCHit                     0 			# 
SyncStoreCWriteMiss               0 			# 
SyncStoreCWriteUpgrade            0 			# 
SyncStoreHit                      0 			# 
SyncStoreWriteMiss                0 			# 
SyncStoreWriteUpgrade             0 			# 
BarStoreWriteMiss                 0 			# 
BarStoreWriteUpgrade              0 			# 
test_hit_ratio         <error: divide by zero: > # 
test_sec_hit_ratio     <error: divide by zero: > # 
set_hit_ratio          <error: divide by zero: > # 
lock_fifo_full                    0 			# total number of lock fifo overflow
lock_fifo_wrong                   0 			# total number of lock fifo overflow
lock_fifo_writeback               0 			# total number of lock fifo overflow
lock_fifo_benefit                 0 			# total number of lock fifo benefit
lock_cache_hit                    0 			# total number of lock fifo benefit
lock_cache_miss                   0 			# total number of lock fifo benefit
L1_mshr_full                      0 			# total number of L1 mshr overflow
Stall_L1_mshr                     0 			# total stall cycles for L1 mshr overflow
L2_mshr_full                      0 			# total number of L2 mshr overflow
Stall_L2_mshr                     0 			# total stall cycles for L2 mshr overflow
L2_mshr_full_prefetch             0 			# total number of L2 mshr overflow when prefetch
L1_fifo_full                      0 			# total number of L1 fifo overflow
Stall_L1_fifo                     0 			# total stall cycles for L1 fifo overflow
Dir_fifo_full                     0 			# total number of dir fifo overflow
Stall_dir_fifo                    0 			# total stall cycles for dir fifo overflow
Input_queue_full                 36 			# total number of input queue overflow
Output_queue_full                 0 			# total number of output queue overflow
Stall_input_queue               443 			# total stall cycles due to input queue overflow
Stall_output_queue                0 			# total stall cycles due to output queue overflow
total_load_link_shared            0 			# total load link shared
total_load_link_exclusive            0 			# total load link shared
total_normal_miss_handle_time       174309 			# total time of handling the missing
total_sync_miss_handle_time            0 			# total time of handling the missing
total_L2_miss_handle_time        38999 			# total time of handling the missing
total_Wrong_L2_miss_handle_time            0 			# total time of handling the missing
total_L2_misses                 141 			# total time of handling the missing
total_mem_lat                 95825 			# total time of handling the missing
total_mem_access                472 			# total time of handling the missing
total_miss_handle_time       174309 			# total time of handling the missing
total_nack_count                  0 			# total num of nack messages sending
total_prefetch_nack_count            0 			# total num of nack messages sending
total_normal_nack_count            0 			# total num of nack messages sending
total_write_nack_count            0 			# total num of nack messages sending
total_sync_nack_count             0 			# total num of nack messages sending
total_sc_fail_count               0 			# total num of store conditional fail
total_flip_count               6378 			# total num of flipped messages
total_L1_flip_count               0 			# total num of flipped messages
total_data_reply_benefit           15 			# total num of data reply benefit
average_normal_miss_handle_time     171.7330 # cycles per every miss and invalidation
average_L2_miss_handle_time      38.4227 # cycles per every miss and invalidation
average_sync_miss_handle_time <error: divide by zero: > # cycles per every miss and invalidation
average_miss_handle_time     171.7330 # cycles per every miss and invalidation
total_mesh_network_access         5342 			# total mesh_network access
total_mesh_network_delay       128406 			# total mesh_network delay
average_mesh_network_time      24.0371 # cycles per mesh_network access
total_normal_mesh_network_access         5342 			# total mesh_network access
total_normal_mesh_network_delay       128406 			# total mesh_network delay
average_normal_mesh_network_time <error: variable is undefined: total_noraml_mesh_network_delay> # cycles per mesh_network access
total_sync_mesh_network_access            0 			# total mesh_network access
total_sync_mesh_network_delay            0 			# total mesh_network delay
average_sync_mesh_network_time <error: divide by zero: > # cycles per mesh_network access
total_opt_network_access            0 			# total opt_network access
total_opt_network_delay            0 			# total opt_network delay
average_opt_network_time <error: divide by zero: > # cycles per opt_network access
total_normal_opt_network_access            0 			# total opt_network access
total_normal_opt_network_delay            0 			# total opt_network delay
average_normal_opt_network_time <error: divide by zero: > # cycles per opt_network access
total_sync_opt_network_access            0 			# total opt_network access
total_sync_opt_network_delay            0 			# total opt_network delay
average_sync_opt_network_time <error: divide by zero: > # cycles per opt_network access
total_local_cache_access          362 			# total local dl2 cache access number
total_remote_cache_access         1229 			# total remote dl2 cache access number
total_two_hops_involve_wb            0 			# total two hops involves due to write back
total_two_hops_involve_touch            0 			# total two hops involves due to touch
total_two_hops_involves          340 			# total two hops involves
total_four_hops_involves          266 			# total four hops involves
total_two_hops_involves_wm            0 			# total two hops involves
total_four_hops_involves_wm            0 			# total four hops involves
total_two_hops_involve_miss          141 			# total two hops involves
total_four_hops_involve_miss            0 			# total four hops involves
total_four_hops_involve_upgrade            0 			# total four hops involves
total_two_hops_involve_upgrade            0 			# total two hops involves
data_private_read                 0 			# total private data for read miss
data_private_write                0 			# total private data for write miss
data_shared_read                  0 			# total shared data for read miss
data_shared_write                 0 			# total shared data for write miss
total_all_close                   0 			# total numbers of all closed consumers
total_not_all_close               0 			# total numbers of not all closed consumers
total_p_c_events                  0 			# total producer and consumers events (should equal to 4 hops)
total_consumers                   0 			# total numbers of consumers
total_packets_in_neighbor            0 			# total packets are in neighborhood
total_packets_at_corners            0 			# total packets are at corners
total_all_almostclose             0 			# total numbers of all closed and corner consumers
total_data_consumers              0 			# total data packets of consumers
total_data_at_corner              0 			# total data packets supply from at corners
total_data_close                  0 			# total data packets are supplied from closeby sources
total_data_far                    0 			# total data packets are sumpplied from far sources
average_inside_percent       0.0000 # average inside packets percent(should be divided by total_not_all_close)
average_outside_percent       0.0000 # average outside packets percent(should be divided by total_not_all_close)
average_outside_abs_percent       0.0000 # average absolutly outside packets percent(far - corner)
average_corner_percent       0.0000 # average outside packets percent(corner: should be divided by total_not_all_clos)
total_far_packets                 0 			# 
total_corner_packets              0 			# 
total_neighbor_packets            0 			# 
pending_invalid_cycles       0.0000 # how many cycles to invalidate the cache line
total_down_r                      0 			# 
total_down_w                      0 			# 
down_spand_0                      0 			# 
down_spand_1                      0 			# 
down_spand_2                      0 			# 
down_spand_3                      0 			# 
down_spand_4                      0 			# 
total_private_counts              0 			# 
total_migration_counts            0 			# 
total_shared_counts               0 			# 
total_shared_rw_counts            0 			# 
total_private_dynamic_counts            0 			# 
total_migrate_dynamic_counts            0 			# 
total_shared_dynamic_counts            0 			# 
total_srw_dynamic_counts            0 			# 
total_inflight_private            0 			# 
total_inflight_migrate            0 			# 
total_inflight_shared_only            0 			# 
total_inflight_shared_rw            0 			# 
total_private_others              0 			# 
total_type_changed                0 			# 
total_line_accesses               0 			# 
total_inflight_accesses            0 			# 
total_p_to_srw                    0 			# 
total_srw_to_p                    0 			# 
total_srw_constatnt               0 			# 
Cache_dynamic_acc_private0            0 			# 
Cache_dynamic_acc_private1            0 			# 
Cache_dynamic_acc_private2            0 			# 
Cache_dynamic_acc_private3            0 			# 
Cache_dynamic_acc_private4            0 			# 
Cache_dynamic_acc_private5            0 			# 
Cache_dynamic_acc_private6            0 			# 
Cache_dynamic_acc_private7            0 			# 
Cache_dynamic_acc_private8            0 			# 
Cache_dynamic_acc_private9            0 			# 
Cache_dynamic_acc_private10            0 			# 
Cache_dynamic_acc_private11            0 			# 
Cache_dynamic_acc_private12            0 			# 
Cache_dynamic_acc_private13            0 			# 
Cache_dynamic_acc_private14            0 			# 
Cache_dynamic_acc_private15            0 			# 
Cache_dynamic_acc_private16            0 			# 
Cache_dynamic_acc_private17            0 			# 
Cache_dynamic_acc_private18            0 			# 
Cache_dynamic_acc_private19            0 			# 
Cache_dynamic_acc_private20            0 			# 
Cache_dynamic_acc_private21            0 			# 
Cache_dynamic_acc_private22            0 			# 
Cache_dynamic_acc_private23            0 			# 
Cache_dynamic_acc_private24            0 			# 
Cache_dynamic_acc_private25            0 			# 
Cache_dynamic_acc_private26            0 			# 
Cache_dynamic_acc_private27            0 			# 
Cache_dynamic_acc_private28            0 			# 
Cache_dynamic_acc_private29            0 			# 
Cache_dynamic_acc_private30            0 			# 
Cache_dynamic_acc_private31            0 			# 
Cache_dynamic_acc_private32            0 			# 
Cache_dynamic_acc_private33            0 			# 
Cache_dynamic_acc_private34            0 			# 
Cache_dynamic_acc_private35            0 			# 
Cache_dynamic_acc_private36            0 			# 
Cache_dynamic_acc_private37            0 			# 
Cache_dynamic_acc_private38            0 			# 
Cache_dynamic_acc_private39            0 			# 
Cache_dynamic_acc_private40            0 			# 
Cache_dynamic_acc_private41            0 			# 
Cache_dynamic_acc_private42            0 			# 
Cache_dynamic_acc_private43            0 			# 
Cache_dynamic_acc_private44            0 			# 
Cache_dynamic_acc_private45            0 			# 
Cache_dynamic_acc_private46            0 			# 
Cache_dynamic_acc_private47            0 			# 
Cache_dynamic_acc_private48            0 			# 
Cache_dynamic_acc_private49            0 			# 
Cache_dynamic_acc_private50            0 			# 
Cache_dynamic_acc_private51            0 			# 
Cache_dynamic_acc_private52            0 			# 
Cache_dynamic_acc_private53            0 			# 
Cache_dynamic_acc_private54            0 			# 
Cache_dynamic_acc_private55            0 			# 
Cache_dynamic_acc_private56            0 			# 
Cache_dynamic_acc_private57            0 			# 
Cache_dynamic_acc_private58            0 			# 
Cache_dynamic_acc_private59            0 			# 
Cache_dynamic_acc_private60            0 			# 
Cache_dynamic_acc_private61            0 			# 
Cache_dynamic_acc_private62            0 			# 
Cache_dynamic_acc_private63            0 			# 
Cache_dynamic_acc_private64            0 			# 
Cache_dynamic_acc_private65            0 			# 
Cache_dynamic_acc_private66            0 			# 
Cache_dynamic_acc_private67            0 			# 
Cache_dynamic_acc_private68            0 			# 
Cache_dynamic_acc_private69            0 			# 
Cache_dynamic_acc_private70            0 			# 
Cache_dynamic_acc_private71            0 			# 
Cache_dynamic_acc_private72            0 			# 
Cache_dynamic_acc_private73            0 			# 
Cache_dynamic_acc_private74            0 			# 
Cache_dynamic_acc_private75            0 			# 
Cache_dynamic_acc_private76            0 			# 
Cache_dynamic_acc_private77            0 			# 
Cache_dynamic_acc_private78            0 			# 
Cache_dynamic_acc_private79            0 			# 
Cache_dynamic_acc_private80            0 			# 
Cache_dynamic_acc_private81            0 			# 
Cache_dynamic_acc_private82            0 			# 
Cache_dynamic_acc_private83            0 			# 
Cache_dynamic_acc_private84            0 			# 
Cache_dynamic_acc_private85            0 			# 
Cache_dynamic_acc_private86            0 			# 
Cache_dynamic_acc_private87            0 			# 
Cache_dynamic_acc_private88            0 			# 
Cache_dynamic_acc_private89            0 			# 
Cache_dynamic_acc_private90            0 			# 
Cache_dynamic_acc_private91            0 			# 
Cache_dynamic_acc_private92            0 			# 
Cache_dynamic_acc_private93            0 			# 
Cache_dynamic_acc_private94            0 			# 
Cache_dynamic_acc_private95            0 			# 
Cache_dynamic_acc_private96            0 			# 
Cache_dynamic_acc_private97            0 			# 
Cache_dynamic_acc_private98            0 			# 
Cache_dynamic_acc_private99            0 			# 
Cache_dynamic_acc_private100            0 			# 
Cache_dynamic_acc_migrate0            0 			# 
Cache_dynamic_acc_migrate1            0 			# 
Cache_dynamic_acc_migrate2            0 			# 
Cache_dynamic_acc_migrate3            0 			# 
Cache_dynamic_acc_migrate4            0 			# 
Cache_dynamic_acc_migrate5            0 			# 
Cache_dynamic_acc_migrate6            0 			# 
Cache_dynamic_acc_migrate7            0 			# 
Cache_dynamic_acc_migrate8            0 			# 
Cache_dynamic_acc_migrate9            0 			# 
Cache_dynamic_acc_migrate10            0 			# 
Cache_dynamic_acc_migrate11            0 			# 
Cache_dynamic_acc_migrate12            0 			# 
Cache_dynamic_acc_migrate13            0 			# 
Cache_dynamic_acc_migrate14            0 			# 
Cache_dynamic_acc_migrate15            0 			# 
Cache_dynamic_acc_migrate16            0 			# 
Cache_dynamic_acc_migrate17            0 			# 
Cache_dynamic_acc_migrate18            0 			# 
Cache_dynamic_acc_migrate19            0 			# 
Cache_dynamic_acc_migrate20            0 			# 
Cache_dynamic_acc_migrate21            0 			# 
Cache_dynamic_acc_migrate22            0 			# 
Cache_dynamic_acc_migrate23            0 			# 
Cache_dynamic_acc_migrate24            0 			# 
Cache_dynamic_acc_migrate25            0 			# 
Cache_dynamic_acc_migrate26            0 			# 
Cache_dynamic_acc_migrate27            0 			# 
Cache_dynamic_acc_migrate28            0 			# 
Cache_dynamic_acc_migrate29            0 			# 
Cache_dynamic_acc_migrate30            0 			# 
Cache_dynamic_acc_migrate31            0 			# 
Cache_dynamic_acc_migrate32            0 			# 
Cache_dynamic_acc_migrate33            0 			# 
Cache_dynamic_acc_migrate34            0 			# 
Cache_dynamic_acc_migrate35            0 			# 
Cache_dynamic_acc_migrate36            0 			# 
Cache_dynamic_acc_migrate37            0 			# 
Cache_dynamic_acc_migrate38            0 			# 
Cache_dynamic_acc_migrate39            0 			# 
Cache_dynamic_acc_migrate40            0 			# 
Cache_dynamic_acc_migrate41            0 			# 
Cache_dynamic_acc_migrate42            0 			# 
Cache_dynamic_acc_migrate43            0 			# 
Cache_dynamic_acc_migrate44            0 			# 
Cache_dynamic_acc_migrate45            0 			# 
Cache_dynamic_acc_migrate46            0 			# 
Cache_dynamic_acc_migrate47            0 			# 
Cache_dynamic_acc_migrate48            0 			# 
Cache_dynamic_acc_migrate49            0 			# 
Cache_dynamic_acc_migrate50            0 			# 
[...]
6 total router power: 37229.9
The router 0 6 send packet:       0
The router 0 6 receive packet:    0
  7 arbiter power: 202.419
  7 buffer power: 4650.28
  7 crossbar power: 12940.3
  7 link power: 19436.8
7 total router power: 37229.9
The router 0 7 send packet:       0
The router 0 7 receive packet:    0
  8 arbiter power: 202.419
  8 buffer power: 4650.28
  8 crossbar power: 12940.3
  8 link power: 19436.8
8 total router power: 37229.9
The router 0 8 send packet:       0
The router 0 8 receive packet:    0
  9 arbiter power: 202.419
  9 buffer power: 4650.28
  9 crossbar power: 12940.3
  9 link power: 19436.8
9 total router power: 37229.9
The router 0 9 send packet:       0
The router 0 9 receive packet:    0
  10 arbiter power: 202.505
  10 buffer power: 11636.4
  10 crossbar power: 31490.2
  10 link power: 34478.3
10 total router power: 77807.4
The router 1 0 send packet:       1069
The router 1 0 receive packet:    1168
  11 arbiter power: 202.639
  11 buffer power: 16616.8
  11 crossbar power: 51703.5
  11 link power: 50714.5
11 total router power: 119237
The router 1 1 send packet:       1274
The router 1 1 receive packet:    1355
  12 arbiter power: 202.66
  12 buffer power: 15993.3
  12 crossbar power: 62423.3
  12 link power: 59413
12 total router power: 138032
The router 1 2 send packet:       745
The router 1 2 receive packet:    872
  13 arbiter power: 202.525
  13 buffer power: 13022.9
  13 crossbar power: 39342.8
  13 link power: 40838.9
13 total router power: 93407.1
The router 1 3 send packet:       1320
The router 1 3 receive packet:    1475
  14 arbiter power: 202.419
  14 buffer power: 4650.28
  14 crossbar power: 12940.3
  14 link power: 19436.8
14 total router power: 37229.9
The router 1 4 send packet:       0
The router 1 4 receive packet:    0
  15 arbiter power: 202.419
  15 buffer power: 4650.28
  15 crossbar power: 12940.3
  15 link power: 19436.8
15 total router power: 37229.9
The router 1 5 send packet:       0
The router 1 5 receive packet:    0
  16 arbiter power: 202.419
  16 buffer power: 4650.28
  16 crossbar power: 12940.3
  16 link power: 19436.8
16 total router power: 37229.9
The router 1 6 send packet:       0
The router 1 6 receive packet:    0
  17 arbiter power: 202.419
  17 buffer power: 4650.28
  17 crossbar power: 12940.3
  17 link power: 19436.8
17 total router power: 37229.9
The router 1 7 send packet:       0
The router 1 7 receive packet:    0
  18 arbiter power: 202.419
  18 buffer power: 4650.28
  18 crossbar power: 12940.3
  18 link power: 19436.8
18 total router power: 37229.9
The router 1 8 send packet:       0
The router 1 8 receive packet:    0
  19 arbiter power: 202.419
  19 buffer power: 4650.28
  19 crossbar power: 12940.3
  19 link power: 19436.8
19 total router power: 37229.9
The router 1 9 send packet:       0
The router 1 9 receive packet:    0
  20 arbiter power: 202.419
  20 buffer power: 4650.28
  20 crossbar power: 12940.3
  20 link power: 19436.8
20 total router power: 37229.9
The router 2 0 send packet:       0
The router 2 0 receive packet:    0
  21 arbiter power: 202.419
  21 buffer power: 4650.28
  21 crossbar power: 12940.3
  21 link power: 19436.8
21 total router power: 37229.9
The router 2 1 send packet:       0
The router 2 1 receive packet:    0
  22 arbiter power: 202.419
  22 buffer power: 4650.28
  22 crossbar power: 12940.3
  22 link power: 19436.8
22 total router power: 37229.9
The router 2 2 send packet:       0
The router 2 2 receive packet:    0
  23 arbiter power: 202.419
  23 buffer power: 4650.28
  23 crossbar power: 12940.3
  23 link power: 19436.8
23 total router power: 37229.9
The router 2 3 send packet:       0
The router 2 3 receive packet:    0
  24 arbiter power: 202.419
  24 buffer power: 4650.28
  24 crossbar power: 12940.3
  24 link power: 19436.8
24 total router power: 37229.9
The router 2 4 send packet:       0
The router 2 4 receive packet:    0
  25 arbiter power: 202.419
  25 buffer power: 4650.28
  25 crossbar power: 12940.3
  25 link power: 19436.8
25 total router power: 37229.9
The router 2 5 send packet:       0
The router 2 5 receive packet:    0
  26 arbiter power: 202.419
  26 buffer power: 4650.28
  26 crossbar power: 12940.3
  26 link power: 19436.8
26 total router power: 37229.9
The router 2 6 send packet:       0
The router 2 6 receive packet:    0
  27 arbiter power: 202.419
  27 buffer power: 4650.28
  27 crossbar power: 12940.3
  27 link power: 19436.8
27 total router power: 37229.9
The router 2 7 send packet:       0
The router 2 7 receive packet:    0
  28 arbiter power: 202.419
  28 buffer power: 4650.28
  28 crossbar power: 12940.3
  28 link power: 19436.8
28 total router power: 37229.9
The router 2 8 send packet:       0
The router 2 8 receive packet:    0
  29 arbiter power: 202.419
  29 buffer power: 4650.28
  29 crossbar power: 12940.3
  29 link power: 19436.8
29 total router power: 37229.9
The router 2 9 send packet:       0
The router 2 9 receive packet:    0
  30 arbiter power: 202.419
  30 buffer power: 4650.28
  30 crossbar power: 12940.3
  30 link power: 19436.8
30 total router power: 37229.9
The router 3 0 send packet:       0
The router 3 0 receive packet:    0
  31 arbiter power: 202.419
  31 buffer power: 4650.28
  31 crossbar power: 12940.3
  31 link power: 19436.8
31 total router power: 37229.9
The router 3 1 send packet:       0
The router 3 1 receive packet:    0
  32 arbiter power: 202.419
  32 buffer power: 4650.28
  32 crossbar power: 12940.3
  32 link power: 19436.8
32 total router power: 37229.9
The router 3 2 send packet:       0
The router 3 2 receive packet:    0
  33 arbiter power: 202.419
  33 buffer power: 4650.28
  33 crossbar power: 12940.3
  33 link power: 19436.8
33 total router power: 37229.9
The router 3 3 send packet:       0
The router 3 3 receive packet:    0
  34 arbiter power: 202.419
  34 buffer power: 4650.28
  34 crossbar power: 12940.3
  34 link power: 19436.8
34 total router power: 37229.9
The router 3 4 send packet:       0
The router 3 4 receive packet:    0
  35 arbiter power: 202.419
  35 buffer power: 4650.28
  35 crossbar power: 12940.3
  35 link power: 19436.8
35 total router power: 37229.9
The router 3 5 send packet:       0
The router 3 5 receive packet:    0
  36 arbiter power: 202.419
  36 buffer power: 4650.28
  36 crossbar power: 12940.3
  36 link power: 19436.8
36 total router power: 37229.9
The router 3 6 send packet:       0
The router 3 6 receive packet:    0
  37 arbiter power: 202.419
  37 buffer power: 4650.28
  37 crossbar power: 12940.3
  37 link power: 19436.8
37 total router power: 37229.9
The router 3 7 send packet:       0
The router 3 7 receive packet:    0
  38 arbiter power: 202.419
  38 buffer power: 4650.28
  38 crossbar power: 12940.3
  38 link power: 19436.8
38 total router power: 37229.9
The router 3 8 send packet:       0
The router 3 8 receive packet:    0
  39 arbiter power: 202.419
  39 buffer power: 4650.28
  39 crossbar power: 12940.3
  39 link power: 19436.8
39 total router power: 37229.9
The router 3 9 send packet:       0
The router 3 9 receive packet:    0
  40 arbiter power: 202.419
  40 buffer power: 4650.28
  40 crossbar power: 12940.3
  40 link power: 19436.8
40 total router power: 37229.9
The router 4 0 send packet:       0
The router 4 0 receive packet:    0
  41 arbiter power: 202.419
  41 buffer power: 4650.28
  41 crossbar power: 12940.3
  41 link power: 19436.8
41 total router power: 37229.9
The router 4 1 send packet:       0
The router 4 1 receive packet:    0
  42 arbiter power: 202.419
  42 buffer power: 4650.28
  42 crossbar power: 12940.3
  42 link power: 19436.8
42 total router power: 37229.9
The router 4 2 send packet:       0
The router 4 2 receive packet:    0
  43 arbiter power: 202.419
  43 buffer power: 4650.28
  43 crossbar power: 12940.3
  43 link power: 19436.8
43 total router power: 37229.9
The router 4 3 send packet:       0
The router 4 3 receive packet:    0
  44 arbiter power: 202.419
  44 buffer power: 4650.28
  44 crossbar power: 12940.3
  44 link power: 19436.8
44 total router power: 37229.9
The router 4 4 send packet:       0
The router 4 4 receive packet:    0
  45 arbiter power: 202.419
  45 buffer power: 4650.28
  45 crossbar power: 12940.3
  45 link power: 19436.8
45 total router power: 37229.9
The router 4 5 send packet:       0
The router 4 5 receive packet:    0
  46 arbiter power: 202.419
  46 buffer power: 4650.28
  46 crossbar power: 12940.3
  46 link power: 19436.8
46 total router power: 37229.9
The router 4 6 send packet:       0
The router 4 6 receive packet:    0
  47 arbiter power: 202.419
  47 buffer power: 4650.28
  47 crossbar power: 12940.3
  47 link power: 19436.8
47 total router power: 37229.9
The router 4 7 send packet:       0
The router 4 7 receive packet:    0
  48 arbiter power: 202.419
  48 buffer power: 4650.28
  48 crossbar power: 12940.3
  48 link power: 19436.8
48 total router power: 37229.9
The router 4 8 send packet:       0
The router 4 8 receive packet:    0
  49 arbiter power: 202.419
  49 buffer power: 4650.28
  49 crossbar power: 12940.3
  49 link power: 19436.8
49 total router power: 37229.9
The router 4 9 send packet:       0
The router 4 9 receive packet:    0
  50 arbiter power: 202.419
  50 buffer power: 4650.28
  50 crossbar power: 12940.3
  50 link power: 19436.8
50 total router power: 37229.9
The router 5 0 send packet:       0
The router 5 0 receive packet:    0
  51 arbiter power: 202.419
  51 buffer power: 4650.28
  51 crossbar power: 12940.3
  51 link power: 19436.8
51 total router power: 37229.9
The router 5 1 send packet:       0
The router 5 1 receive packet:    0
  52 arbiter power: 202.419
  52 buffer power: 4650.28
  52 crossbar power: 12940.3
  52 link power: 19436.8
52 total router power: 37229.9
The router 5 2 send packet:       0
The router 5 2 receive packet:    0
  53 arbiter power: 202.419
  53 buffer power: 4650.28
  53 crossbar power: 12940.3
  53 link power: 19436.8
53 total router power: 37229.9
The router 5 3 send packet:       0
The router 5 3 receive packet:    0
  54 arbiter power: 202.419
  54 buffer power: 4650.28
  54 crossbar power: 12940.3
  54 link power: 19436.8
54 total router power: 37229.9
The router 5 4 send packet:       0
The router 5 4 receive packet:    0
  55 arbiter power: 202.419
  55 buffer power: 4650.28
  55 crossbar power: 12940.3
  55 link power: 19436.8
55 total router power: 37229.9
The router 5 5 send packet:       0
The router 5 5 receive packet:    0
  56 arbiter power: 202.419
  56 buffer power: 4650.28
  56 crossbar power: 12940.3
  56 link power: 19436.8
56 total router power: 37229.9
The router 5 6 send packet:       0
The router 5 6 receive packet:    0
  57 arbiter power: 202.419
  57 buffer power: 4650.28
  57 crossbar power: 12940.3
  57 link power: 19436.8
57 total router power: 37229.9
The router 5 7 send packet:       0
The router 5 7 receive packet:    0
  58 arbiter power: 202.419
  58 buffer power: 4650.28
  58 crossbar power: 12940.3
  58 link power: 19436.8
58 total router power: 37229.9
The router 5 8 send packet:       0
The router 5 8 receive packet:    0
  59 arbiter power: 202.419
  59 buffer power: 4650.28
  59 crossbar power: 12940.3
  59 link power: 19436.8
59 total router power: 37229.9
The router 5 9 send packet:       0
The router 5 9 receive packet:    0
  60 arbiter power: 202.419
  60 buffer power: 4650.28
  60 crossbar power: 12940.3
  60 link power: 19436.8
60 total router power: 37229.9
The router 6 0 send packet:       0
The router 6 0 receive packet:    0
  61 arbiter power: 202.419
  61 buffer power: 4650.28
  61 crossbar power: 12940.3
  61 link power: 19436.8
61 total router power: 37229.9
The router 6 1 send packet:       0
The router 6 1 receive packet:    0
  62 arbiter power: 202.419
  62 buffer power: 4650.28
  62 crossbar power: 12940.3
  62 link power: 19436.8
62 total router power: 37229.9
The router 6 2 send packet:       0
The router 6 2 receive packet:    0
  63 arbiter power: 202.419
  63 buffer power: 4650.28
  63 crossbar power: 12940.3
  63 link power: 19436.8
63 total router power: 37229.9
The router 6 3 send packet:       0
The router 6 3 receive packet:    0
  64 arbiter power: 202.419
  64 buffer power: 4650.28
  64 crossbar power: 12940.3
  64 link power: 19436.8
64 total router power: 37229.9
The router 6 4 send packet:       0
The router 6 4 receive packet:    0
  65 arbiter power: 202.419
  65 buffer power: 4650.28
  65 crossbar power: 12940.3
  65 link power: 19436.8
65 total router power: 37229.9
The router 6 5 send packet:       0
The router 6 5 receive packet:    0
  66 arbiter power: 202.419
  66 buffer power: 4650.28
  66 crossbar power: 12940.3
  66 link power: 19436.8
66 total router power: 37229.9
The router 6 6 send packet:       0
The router 6 6 receive packet:    0
  67 arbiter power: 202.419
  67 buffer power: 4650.28
  67 crossbar power: 12940.3
  67 link power: 19436.8
67 total router power: 37229.9
The router 6 7 send packet:       0
The router 6 7 receive packet:    0
  68 arbiter power: 202.419
  68 buffer power: 4650.28
  68 crossbar power: 12940.3
  68 link power: 19436.8
68 total router power: 37229.9
The router 6 8 send packet:       0
The router 6 8 receive packet:    0
  69 arbiter power: 202.419
  69 buffer power: 4650.28
  69 crossbar power: 12940.3
  69 link power: 19436.8
69 total router power: 37229.9
The router 6 9 send packet:       0
The router 6 9 receive packet:    0
  70 arbiter power: 202.419
  70 buffer power: 4650.28
  70 crossbar power: 12940.3
  70 link power: 19436.8
70 total router power: 37229.9
The router 7 0 send packet:       0
The router 7 0 receive packet:    0
  71 arbiter power: 202.419
  71 buffer power: 4650.28
  71 crossbar power: 12940.3
  71 link power: 19436.8
71 total router power: 37229.9
The router 7 1 send packet:       0
The router 7 1 receive packet:    0
  72 arbiter power: 202.419
  72 buffer power: 4650.28
  72 crossbar power: 12940.3
  72 link power: 19436.8
72 total router power: 37229.9
The router 7 2 send packet:       0
The router 7 2 receive packet:    0
  73 arbiter power: 202.419
  73 buffer power: 4650.28
  73 crossbar power: 12940.3
  73 link power: 19436.8
73 total router power: 37229.9
The router 7 3 send packet:       0
The router 7 3 receive packet:    0
  74 arbiter power: 202.419
  74 buffer power: 4650.28
  74 crossbar power: 12940.3
  74 link power: 19436.8
74 total router power: 37229.9
The router 7 4 send packet:       0
The router 7 4 receive packet:    0
  75 arbiter power: 202.419
  75 buffer power: 4650.28
  75 crossbar power: 12940.3
  75 link power: 19436.8
75 total router power: 37229.9
The router 7 5 send packet:       0
The router 7 5 receive packet:    0
  76 arbiter power: 202.419
  76 buffer power: 4650.28
  76 crossbar power: 12940.3
  76 link power: 19436.8
76 total router power: 37229.9
The router 7 6 send packet:       0
The router 7 6 receive packet:    0
  77 arbiter power: 202.419
  77 buffer power: 4650.28
  77 crossbar power: 12940.3
  77 link power: 19436.8
77 total router power: 37229.9
The router 7 7 send packet:       0
The router 7 7 receive packet:    0
  78 arbiter power: 202.419
  78 buffer power: 4650.28
  78 crossbar power: 12940.3
  78 link power: 19436.8
78 total router power: 37229.9
The router 7 8 send packet:       0
The router 7 8 receive packet:    0
  79 arbiter power: 202.419
  79 buffer power: 4650.28
  79 crossbar power: 12940.3
  79 link power: 19436.8
79 total router power: 37229.9
The router 7 9 send packet:       0
The router 7 9 receive packet:    0
  80 arbiter power: 202.419
  80 buffer power: 4650.28
  80 crossbar power: 12940.3
  80 link power: 19436.8
80 total router power: 37229.9
The router 8 0 send packet:       0
The router 8 0 receive packet:    0
  81 arbiter power: 202.419
  81 buffer power: 4650.28
  81 crossbar power: 12940.3
  81 link power: 19436.8
81 total router power: 37229.9
The router 8 1 send packet:       0
The router 8 1 receive packet:    0
  82 arbiter power: 202.419
  82 buffer power: 4650.28
  82 crossbar power: 12940.3
  82 link power: 19436.8
82 total router power: 37229.9
The router 8 2 send packet:       0
The router 8 2 receive packet:    0
  83 arbiter power: 202.419
  83 buffer power: 4650.28
  83 crossbar power: 12940.3
  83 link power: 19436.8
83 total router power: 37229.9
The router 8 3 send packet:       0
The router 8 3 receive packet:    0
  84 arbiter power: 202.419
  84 buffer power: 4650.28
  84 crossbar power: 12940.3
  84 link power: 19436.8
84 total router power: 37229.9
The router 8 4 send packet:       0
The router 8 4 receive packet:    0
  85 arbiter power: 202.419
  85 buffer power: 4650.28
  85 crossbar power: 12940.3
  85 link power: 19436.8
85 total router power: 37229.9
The router 8 5 send packet:       0
The router 8 5 receive packet:    0
  86 arbiter power: 202.419
  86 buffer power: 4650.28
  86 crossbar power: 12940.3
  86 link power: 19436.8
86 total router power: 37229.9
The router 8 6 send packet:       0
The router 8 6 receive packet:    0
  87 arbiter power: 202.419
  87 buffer power: 4650.28
  87 crossbar power: 12940.3
  87 link power: 19436.8
87 total router power: 37229.9
The router 8 7 send packet:       0
The router 8 7 receive packet:    0
  88 arbiter power: 202.419
  88 buffer power: 4650.28
  88 crossbar power: 12940.3
  88 link power: 19436.8
88 total router power: 37229.9
The router 8 8 send packet:       0
The router 8 8 receive packet:    0
  89 arbiter power: 202.419
  89 buffer power: 4650.28
  89 crossbar power: 12940.3
  89 link power: 19436.8
89 total router power: 37229.9
The router 8 9 send packet:       0
The router 8 9 receive packet:    0
  90 arbiter power: 202.419
  90 buffer power: 4650.28
  90 crossbar power: 12940.3
  90 link power: 19436.8
90 total router power: 37229.9
The router 9 0 send packet:       0
The router 9 0 receive packet:    0
  91 arbiter power: 202.419
  91 buffer power: 4650.28
  91 crossbar power: 12940.3
  91 link power: 19436.8
91 total router power: 37229.9
The router 9 1 send packet:       0
The router 9 1 receive packet:    0
  92 arbiter power: 202.419
  92 buffer power: 4650.28
  92 crossbar power: 12940.3
  92 link power: 19436.8
92 total router power: 37229.9
The router 9 2 send packet:       0
The router 9 2 receive packet:    0
  93 arbiter power: 202.419
  93 buffer power: 4650.28
  93 crossbar power: 12940.3
  93 link power: 19436.8
93 total router power: 37229.9
The router 9 3 send packet:       0
The router 9 3 receive packet:    0
  94 arbiter power: 202.419
  94 buffer power: 4650.28
  94 crossbar power: 12940.3
  94 link power: 19436.8
94 total router power: 37229.9
The router 9 4 send packet:       0
The router 9 4 receive packet:    0
  95 arbiter power: 202.419
  95 buffer power: 4650.28
  95 crossbar power: 12940.3
  95 link power: 19436.8
95 total router power: 37229.9
The router 9 5 send packet:       0
The router 9 5 receive packet:    0
  96 arbiter power: 202.419
  96 buffer power: 4650.28
  96 crossbar power: 12940.3
  96 link power: 19436.8
96 total router power: 37229.9
The router 9 6 send packet:       0
The router 9 6 receive packet:    0
  97 arbiter power: 202.419
  97 buffer power: 4650.28
  97 crossbar power: 12940.3
  97 link power: 19436.8
97 total router power: 37229.9
The router 9 7 send packet:       0
The router 9 7 receive packet:    0
  98 arbiter power: 202.419
  98 buffer power: 4650.28
  98 crossbar power: 12940.3
  98 link power: 19436.8
98 total router power: 37229.9
The router 9 8 send packet:       0
The router 9 8 receive packet:    0
  99 arbiter power: 202.419
  99 buffer power: 4650.28
  99 crossbar power: 12940.3
  99 link power: 19436.8
99 total router power: 37229.9
The router 9 9 send packet:       0
The router 9 9 receive packet:    0
Total Network power:   4.1171e+06
Total inject packet:   5353
Total finished packet:		    5350
Total delay in popNet:		    128752
Average delay in popNet:		24.0658

