sim_cycle= 34625	sim_num_insn=20000	Progress=2%	data_packets_generate=2924
sim_cycle= 52477	sim_num_insn=40002	Progress=4%	data_packets_generate=1229
sim_cycle= 72158	sim_num_insn=60001	Progress=6%	data_packets_generate=1056
