sim_cycle= 150633	sim_num_insn=20000	Progress=2%	data_packets_generate=1329
