if [ -f "../output_file/all/bfs_0.txt" ];then
        rm ../output_file/all/bfs_0.txt
fi
~/huarzail/CMP_POPNET/CMP/PMS_dvfs/cmp0/sim-outorder \
        -redir:sim ../dvfs_log/bfs_0.txt \
        -redir:dump ../dvfs_log/bfs_0.out \
       	-read_file ../../../pt_net_0.txt \
       	-write_file ../../../pt_net_in.txt \
       	-write_file_backup ../../../pt_net_in_backup.txt \
        -sorted:router ../input_file/noc/bfs_0.sorted\
        -sorted:processor ../input_file/processor/bfs_0.sorted \
        -sorted:l2 ../input_file/memory/bfs.sorted_0\
        -output:cycle ../output_file/all/bfs_0.txt\
        -config config_mesh_ooo_xy_dvfs \
		-max:barrier 0 -max:inst 1000000 hello.BNC
